examples/feeders/CER3_2_33/CER3_2_33_Losses.Txt

LOSSES REPORT

Power Delivery Element Loss Report

Element                  kW Losses    % of Power   kvar Losses

"Line.IT_25_10034_0"       0.00000,      0.0     -4.54776E-008
"Line.IT_25_10034_61557"   0.00000,      0.0     -2.09207E-006
"Line.IT_25_10034_61558"   0.00000,      0.0     -2.45591E-006
"Line.IT_25_10034_61559"   0.00000,      0.0     -2.31947E-006
"Line.IT_25_10034_61560"   0.00000,      0.0     -2.59234E-006
"Line.IT_25_10034_61561"   0.00000,      0.0     -2.27399E-006
"Line.IT_25_10034_61562"   0.00000,      0.0     -2.41043E-006
"Line.IT_25_10034_61563"   0.00000,      0.0     -1.50083E-006
"Line.IT_25_10034_61564"   0.00000,      0.0     -1.50083E-006
"Line.IT_25_10034_61565"   0.00000,      0.0     -2.31947E-006
"Line.IT_25_10034_61567"   0.00000,      0.0     -2.09207E-006
"Line.IT_25_10034_61568"   0.00000,      0.0     -2.36495E-006
"Line.IT_25_10034_61569"   0.00000,      0.0     -2.81974E-006
"Line.IT_25_10034_61570"   0.00000,      0.0     -1.91015E-006
"Line.IT_25_10112_0"       0.00000,      0.0     6.13144E-007
"Line.IT_25_10112_32538"   0.00000,      0.0     -3.23559E-006
"Line.IT_25_10112_61955"   0.00000,      0.0     -1.227E-006
"Line.IT_25_10112_61956"   0.00000,      0.0     -1.87194E-006
"Line.IT_25_10112_61957"   0.00000,      0.0     -9.65107E-007
"Line.IT_25_10112_61958"   0.00014,      0.0     0.000107596
"Line.IT_25_10112_61959"   0.00006,      0.0     2.61149E-005
"Line.IT_25_10112_61960"   0.00015,      0.0     6.30332E-005
"Line.IT_25_10112_61961"   0.00000,      0.0     -6.21848E-007
"Line.IT_25_10113_0"       0.00000,      0.0     2.27968E-007
"Line.IT_25_10113_62800"   0.00001,      0.0     3.11104E-007
"Line.IT_25_10177_0"       0.00000,      0.0     -2.15475E-009
"Line.IT_25_10177_64649"   0.00000,      0.0     -2.88356E-006
"Line.IT_25_10177_64650"   0.00000,      0.0     -3.13651E-006
"Line.IT_25_10207_0"       0.00000,      0.0     -4.60597E-008
"Line.IT_25_10383_0"       0.00000,      0.0     8.0173E-009
"Line.IT_25_10446_0"       0.00001,      0.0     8.99708E-007
"Line.IT_25_10446_68080"   0.00000,      0.0     -2.55072E-006
"Line.IT_25_10446_68082"   0.00071,      0.0     0.000309635
"Line.IT_25_10446_68083"   0.00069,      0.0     0.000301336
"Line.IT_25_10446_68084"   0.00033,      0.0     0.000144467
"Line.IT_25_10446_68085"   0.00012,      0.0     5.12807E-005
"Line.IT_25_10446_68086"   0.00012,      0.0     5.02584E-005
"Line.IT_25_1165_0"        0.00000,      0.0     4.48493E-007
"Line.IT_25_1165_35159"    0.00021,      0.0     8.53895E-005
"Line.IT_25_1165_35160"    0.00015,      0.0     6.71152E-005
"Line.IT_25_1165_35161"    0.00016,      0.0     6.75072E-005
"Line.IT_25_1165_35162"    0.00016,      0.0     7.08945E-005
"Line.IT_25_1165_35163"    0.00017,      0.0     6.99553E-005
"Line.IT_25_1165_35164"    0.00000,      0.0     -3.46158E-006
"Line.IT_25_1165_35165"    0.00000,      0.0     -2.06779E-006
"Line.IT_25_1165_35166"    0.00000,      0.0     -4.35224E-006
"Line.IT_25_1165_35167"    0.00000,      0.0     -2.07117E-006
"Line.IT_25_1165_35168"    0.00000,      0.0     -1.88788E-006
"Line.IT_25_1165_35512"    0.00000,      0.0     -2.02261E-006
"Line.IT_25_1165_35564"    0.00000,      0.0     -3.82016E-006
"Line.IT_25_1165_35565"    0.00000,      0.0     -2.3424E-006
"Line.IT_25_1165_35566"    0.00000,      0.0     -1.55338E-006
"Line.IT_25_1165_35567"    0.00000,      0.0     -5.21271E-006
"Line.IT_25_1250_0"        0.00000,      0.0     4.97562E-007
"Line.IT_25_1250_35568"    0.00005,      0.0     1.46451E-005
"Line.IT_25_1250_35569"    0.00000,      0.0     -3.08106E-006
"Line.IT_25_1250_35570"    0.00023,      0.0     0.000100121
"Line.IT_25_1250_35571"    0.00002,      0.0     4.91623E-006
"Line.IT_25_1250_35573"    0.00023,      0.0     9.7496E-005
"Line.IT_25_1250_35574"    0.00017,      0.0     7.37874E-005
"Line.IT_25_1250_35577"    0.00015,      0.0     6.41294E-005
"Line.IT_25_1250_35579"    0.00026,      0.0     0.000111578
"Line.IT_25_1250_45827"    0.00013,      0.0     6.73525E-005
"Line.IT_25_1251_0"        0.00000,      0.0     2.12215E-007
"Line.IT_25_1251_34385"    0.00000,      0.0     -1.14195E-006
"Line.IT_25_1251_34386"    0.00006,      0.0     2.24302E-005
"Line.IT_25_1251_34387"    0.00006,      0.0     2.30029E-005
"Line.IT_25_1251_34388"    0.00003,      0.0     1.32653E-005
"Line.IT_25_1251_34389"    0.00000,      0.0     -2.8962E-006
"Line.IT_25_1251_34390"    0.00001,      0.0     3.85527E-006
"Line.IT_25_1251_34391"    0.00001,      0.0     2.99374E-006
"Line.IT_25_1251_34392"    0.00000,      0.0     -4.59255E-006
"Line.IT_25_1251_35582"    0.00019,      0.0     8.37751E-005
"Line.IT_25_1251_35583"    0.00001,      0.0     1.84499E-006
"Line.IT_25_1251_35584"    0.00004,      0.0     1.58785E-005
"Line.IT_25_1251_35585"    0.00005,      0.0     2.09668E-005
"Line.IT_25_1251_35586"    0.00000,      0.0     -2.85483E-006
"Line.IT_25_1251_35587"    0.00005,      0.0     2.0885E-005
"Line.IT_25_1252_0"        0.00000,      0.0     4.02506E-007
"Line.IT_25_1252_34393"    0.00009,      0.0     4.00214E-005
"Line.IT_25_1252_34937"    0.00014,      0.0     7.29632E-005
"Line.IT_25_1252_34938"    0.00013,      0.0     6.79369E-005
"Line.IT_25_1252_34939"    0.00001,      0.0     -9.42616E-007
"Line.IT_25_1252_34940"    0.00016,      0.0     7.96861E-005
"Line.IT_25_1252_34941"    0.00000,      0.0     -2.10983E-006
"Line.IT_25_1252_34942"    0.00006,      0.0     2.57922E-005
"Line.IT_25_1252_34943"    0.00000,      0.0     -2.36022E-006
"Line.IT_25_1252_34944"    0.00004,      0.0     1.67918E-005
"Line.IT_25_1252_34945"    0.00005,      0.0     2.09318E-005
"Line.IT_25_1252_34946"    0.00000,      0.0     -1.08933E-006
"Line.IT_25_1252_34948"    0.00004,      0.0     1.75267E-005
"Line.IT_25_1253_0"        0.00001,      0.0     1.04526E-006
"Line.IT_25_1253_12333"    0.00011,      0.0     4.67648E-005
"Line.IT_25_1253_12336"    0.00016,      0.0     6.95553E-005
"Line.IT_25_1253_12337"    0.00013,      0.0     5.51711E-005
"Line.IT_25_1253_12338"    0.00006,      0.0     2.63882E-005
"Line.IT_25_1253_35879"    0.00023,      0.0     0.000118776
"Line.IT_25_1253_35883"    0.00010,      0.0     4.86699E-005
"Line.IT_25_1253_37141"    0.00010,      0.0     4.13654E-005
"Line.IT_25_1254_0"        0.00000,      0.0     1.42129E-007
"Line.IT_25_1254_35020"    0.00001,      0.0     -1.43307E-006
"Line.IT_25_1254_35021"    0.00003,      0.0     1.10253E-005
"Line.IT_25_1254_35715"    0.00006,      0.0     2.11536E-005
"Line.IT_25_1254_35716"    0.00001,      0.0     -2.10578E-006
"Line.IT_25_1254_51745"    0.00001,      0.0     -1.98892E-006
"Line.IT_25_1254_54096"    0.00003,      0.0     1.01528E-005
"Line.IT_25_1354_0"        0.00000,      0.0     -4.79967E-008
"Line.IT_25_1354_35022"    0.00000,      0.0     -9.50413E-007
"Line.IT_25_1354_35023"    0.00000,      0.0     -1.24082E-006
"Line.IT_25_1354_35024"    0.00000,      0.0     -2.00643E-006
"Line.IT_25_1382_0"        0.00000,      0.0     2.65475E-007
"Line.IT_25_1382_35025"    0.00002,      0.0     9.44442E-006
"Line.IT_25_1382_35431"    0.00005,      0.0     1.94767E-005
"Line.IT_25_1382_35432"    0.00000,      0.0     -1.35531E-006
"Line.IT_25_1382_35433"    0.00010,      0.0     4.05176E-005
"Line.IT_25_1382_35434"    0.00000,      0.0     -2.23625E-006
"Line.IT_25_1382_35435"    0.00002,      0.0     6.47641E-006
"Line.IT_25_1382_35436"    0.00011,      0.0     4.39311E-005
"Line.IT_25_1382_35437"    0.00003,      0.0     1.11219E-005
"Line.IT_25_1483_0"        0.00001,      0.0     4.02563E-006
"Line.IT_25_1483_35440"    0.00000,      0.0     -1.87286E-006
"Line.IT_25_1483_35442"    0.00066,      0.0     0.000292193
"Line.IT_25_1483_35444"    0.00001,      0.0     2.69387E-006
"Line.IT_25_1483_35446"    0.00003,      0.0     8.84181E-006
"Line.IT_25_1483_35448"    0.00000,      0.0     -3.41294E-006
"Line.IT_25_1483_41056"    0.00000,      0.0     -1.45147E-006
"Line.IT_25_1483_51513"    0.00218,     0.42     0.000962458
"Line.IT_25_1484_0"        0.00000,      0.0     2.00975E-006
"Line.IT_25_1484_34447"    0.00001,      0.0     5.73775E-007
"Line.IT_25_1484_34448"    0.00001,      0.0     6.41677E-007
"Line.IT_25_1484_35513"    0.00007,      0.0     3.11704E-005
"Line.IT_25_1484_35514"    0.00030,      0.0     0.000132888
"Line.IT_25_1484_35515"    0.00022,      0.0     0.000113938
"Line.IT_25_1484_35516"    0.00005,      0.0     2.15519E-005
"Line.IT_25_1484_35517"    0.00060,      0.0     0.000313362
"Line.IT_25_1484_35518"    0.00000,      0.0     -3.20199E-008
"Line.IT_25_1484_35519"    0.00023,      0.0     0.00011996
"Line.IT_25_1484_35520"    0.00017,      0.0     7.23954E-005
"Line.IT_25_1484_35521"    0.00011,      0.0     4.75772E-005
"Line.IT_25_1484_54253"    0.00044,      0.0     0.000191038
"Line.IT_25_1485_0"        0.00000,      0.0     1.45044E-006
"Line.IT_25_1485_34449"    0.00000,      0.0     -1.21294E-006
"Line.IT_25_1485_34450"    0.00000,      0.0     -1.56671E-006
"Line.IT_25_1485_34451"    0.00000,      0.0     -2.22372E-006
"Line.IT_25_1485_34452"    0.00000,      0.0     -2.27426E-006
"Line.IT_25_1485_34453"    0.00000,      0.0     -2.5775E-006
"Line.IT_25_1485_34454"    0.00000,      0.0     -1.9963E-006
"Line.IT_25_1485_43813"    0.00000,      0.0     -4.67487E-006
"Line.IT_25_1485_43814"    0.00000,      0.0     -1.33929E-006
"Line.IT_25_1485_43815"    0.00000,      0.0     -2.47642E-006
"Line.IT_25_1485_52206"    0.00026,      0.0     7.97791E-005
"Line.IT_25_1485_52207"    0.00028,      0.0     8.41335E-005
"Line.IT_25_1486_0"        0.00000,      0.0     1.72772E-007
"Line.IT_25_1486_34455"    0.00000,      0.0     -2.08369E-006
"Line.IT_25_1486_34456"    0.00016,      0.0     6.99984E-005
"Line.IT_25_1486_34457"    0.00001,      0.0     -1.32156E-006
"Line.IT_25_1486_34458"    0.00001,      0.0     4.39839E-008
"Line.IT_25_1486_34459"    0.00001,      0.0     4.8281E-008
"Line.IT_25_1486_45618"    0.00000,      0.0     -3.40499E-007
"Line.IT_25_1486_47995"    0.00000,      0.0     -1.60893E-006
"Line.IT_25_1647_0"        0.00000,      0.0     -6.23723E-008
"Line.IT_25_1647_34543"    0.00000,      0.0     -5.08147E-006
"Line.IT_25_1647_34544"    0.00000,      0.0     -5.45329E-006
"Line.IT_25_1647_34545"    0.00000,      0.0     -6.38283E-006
"Line.IT_25_1647_34547"    0.00000,      0.0     -6.07298E-006
"Line.IT_25_1647_34548"    0.00007,      0.0     2.74461E-005
"Line.IT_25_1647_34550"    0.00005,      0.0     1.79785E-005
"Line.IT_25_1647_34551"    0.00000,      0.0     -6.45558E-006
"Line.IT_25_1783_0"        0.00000,      0.0     6.01002E-008
"Line.IT_25_1783_34554"    0.00008,      0.0     3.36054E-005
"Line.IT_25_1783_34555"    0.00013,      0.0     5.34135E-005
"Line.IT_25_1783_34558"    0.00025,      0.0     0.000106845
"Line.IT_25_1802_0"        0.00000,      0.0     1.13524E-008
"Line.IT_25_1802_40193"    0.00005,      0.0     3.06761E-005
"Line.IT_25_1802_40194"    0.00002,      0.0     1.00236E-005
"Line.IT_25_1802_40195"    0.00002,      0.0     1.12368E-005
"Line.IT_25_1802_43904"    0.00000,      0.0     -1.66962E-006
"Line.IT_25_1807_0"        0.00000,      0.0     -1.79456E-008
"Line.IT_25_1807_38939"    0.00005,      0.0     3.64045E-005
"Line.IT_25_1807_38940"    0.00009,      0.0     7.06004E-005
"Line.IT_25_1807_38941"    0.00011,      0.0     7.54905E-005
"Line.IT_25_1807_38942"    0.00007,      0.0     4.55183E-005
"Line.IT_25_1807_38943"    0.00005,      0.0     3.79875E-005
"Line.IT_25_1807_38985"    0.00005,      0.0     3.54985E-005
"Line.IT_25_1906_0"        0.00000,      0.0     2.73115E-006
"Line.IT_25_1906_34635"    0.00062,      0.0     0.000497267
"Line.IT_25_1906_34636"    0.00094,     0.18     0.000745907
"Line.IT_25_1906_34637"    0.00119,     0.22     0.000944827
"Line.IT_25_1906_34638"    0.00112,     0.21     0.000895111
"Line.IT_25_1906_34639"    0.00101,     0.19     0.000808097
"Line.IT_25_1912_0"        0.00000,      0.0     1.8301E-007
"Line.IT_25_1912_24914"    0.00000,      0.0     -2.59086E-006
"Line.IT_25_1912_34640"    0.00014,      0.0     5.98658E-005
"Line.IT_25_1912_34641"    0.00000,      0.0     -2.4545E-006
"Line.IT_25_1912_34642"    0.00019,      0.0     8.33464E-005
"Line.IT_25_1912_35893"    0.00000,      0.0     -1.72724E-006
"Line.IT_25_1912_35894"    0.00016,      0.0     7.04371E-005
"Line.IT_25_1912_35898"    0.00021,      0.0     9.27471E-005
"Line.IT_25_2018_0"        0.00000,      0.0     -1.16646E-008
"Line.IT_25_2018_35906"    0.00065,      0.0     0.000282834
...
"Line.MT1"                 0.00027,      0.0     0.000310231
"Line.MT100200_1"          0.00000,      0.0     -0.00370128
"Line.MT100290_1"          0.00022,      0.0     -0.00627156
"Line.MT100571_1"          0.00000,      0.0     -0.0105909
"Line.MT100572_1"          0.00000,      0.0     -0.00231918
"Line.MT100573_1"          0.00000,      0.0     -0.00842635
"Line.MT100574_1"          0.01915,     0.01     0.010143
"Line.MT100576_1"          0.00001,      0.0     -0.00209651
"Line.MT100577_1"          0.00000,      0.0     -8.06362E-005
"Line.MT100579_1"          0.00001,      0.0     -0.00231145
"Line.MT100580_1"          0.00001,      0.0     -0.00285026
"Line.MT100581_1"          0.00001,      0.0     -0.00131754
"Line.MT100582_1"          0.00000,      0.0     -0.00183109
"Line.MT100583_1"          0.00000,      0.0     -0.00188493
"Line.MT100584_1"          0.00000,      0.0     -0.00293507
"Line.MT100585_1"          0.00000,      0.0     -0.00376976
"Line.MT100718_1"          0.00000,      0.0     -0.0061741
"Line.MT100719_1"          0.00000,      0.0     -0.0061741
"Line.MT100720_1"          0.00000,      0.0     -0.00351685
"Line.MT100724_1"          0.01318,     0.01     0.00622338
"Line.MT100725_1"          0.00782,     0.01     0.00327324
"Line.MT100726_1"          0.00739,     0.01     0.00309209
"Line.MT100727_1"          0.01085,     0.01     0.00445112
"Line.MT100729_1"          0.00000,      0.0     -0.000451452
"Line.MT100730_1"          0.00771,     0.01     0.00316375
"Line.MT100731_1"          0.01733,     0.01     0.00706771
"Line.MT101166_1"          0.00005,      0.0     -0.00816341
"Line.MT101168_1"          0.00000,      0.0     -0.000228883
"Line.MT101172_1"          0.02564,     0.01     0.00859885
"Line.MT101173_1"          0.02784,     0.01     0.00933981
"Line.MT101180_1"          0.00000,      0.0     -0.00138168
"Line.MT101183_1"          0.00000,      0.0     -0.0077397
"Line.MT101184_1"          0.00000,      0.0     -0.00103727
"Line.MT101277_1"          0.00000,      0.0     -0.000307715
"Line.MT101279_1"          0.00000,      0.0     -0.00500025
"Line.MT101303_1"          0.03412,     0.01     0.0132348
"Line.MT101333_1"          0.00007,      0.0     -0.0048666
"Line.MT101334_1"          0.00010,      0.0     -0.00698613
"Line.MT101335_1"          0.00008,      0.0     -0.00565188
"Line.MT101336_1"          0.00008,      0.0     -0.00573054
"Line.MT101337_1"          0.00008,      0.0     -0.0057307
"Line.MT101338_1"          0.00006,      0.0     -0.00447477
"Line.MT101344_1"          0.00008,      0.0     -0.00596651
"Line.MT101345_1"          0.00013,      0.0     -0.00934265
"Line.MT101346_1"          0.00005,      0.0     -0.00376859
"Line.MT101355_1"          0.00000,      0.0     -0.00410376
"Line.MT101356_1"          0.00000,      0.0     -0.00221177
"Line.MT101357_1"          0.00000,      0.0     -0.00319773
"Line.MT101358_1"          0.00000,      0.0     -0.00322438
"Line.MT101398_1"          0.00000,      0.0     -0.00166352
"Line.MT101399_1"          0.00000,      0.0     -0.00190116
"Line.MT101400_1"          0.00000,      0.0     -0.00301017
"Line.MT101401_1"          0.00000,      0.0     -0.00182195
"Line.MT101402_1"          0.00000,      0.0     -0.00213881
"Line.MT101403_1"          0.00000,      0.0     -0.00295736
"Line.MT101404_1"          0.00000,      0.0     -0.00168992
"Line.MT101405_1"          0.00000,      0.0     -0.00237645
"Line.MT101413_1"          0.00005,      0.0     -0.0134802
"Line.MT101415_1"          0.00002,      0.0     -0.00411425
"Line.MT101416_1"          0.00002,      0.0     -0.00473521
"Line.MT101444_1"          0.00000,      0.0     -0.00643706
"Line.MT101445_1"          0.00000,      0.0     -0.0106761
"Line.MT101446_1"          0.00000,      0.0     -0.00337553
"Line.MT10150_1"           0.01283,     0.01     0.00940002
"Line.MT101534_1"          0.00000,      0.0     -0.00162828
"Line.MT101535_1"          0.00000,      0.0     -0.00257809
"Line.MT101536_1"          0.00000,      0.0     -0.00227955
"Line.MT101538_1"          0.00000,      0.0     -0.00298648
"Line.MT101539_1"          0.00000,      0.0     -0.00192762
"Line.MT101553_1"          0.00001,      0.0     -0.00115797
"Line.MT101597_1"          0.00021,      0.0     -0.00834828
"Line.MT101598_1"          0.00000,      0.0     -0.00130372
"Line.MT101607_1"          0.00040,      0.0     -0.0166327
"Line.MT101608_1"          0.00032,      0.0     -0.0134432
"Line.MT101609_1"          0.00028,      0.0     -0.0116206
"Line.MT101610_1"          0.00039,      0.0     -0.0161749
"Line.MT101614_1"          0.00007,      0.0     -0.00344945
"Line.MT101620_1"          0.00000,      0.0     -0.00215832
"Line.MT101632_1"          0.00000,      0.0     -0.00286618
"Line.MT101633_1"          0.00000,      0.0     -7.96163E-005
"Line.MT101650_1"          0.00000,      0.0     -0.00918467
"Line.MT101651_1"          0.00000,      0.0     -0.00345406
"Line.MT101652_1"          0.00000,      0.0     -0.00839965
"Line.MT101654_1"          0.00000,      0.0     -0.0334416
"Line.MT101655_1"          0.00000,      0.0     -0.0119322
"Line.MT101685_1"          0.00000,      0.0     -0.00114453
"Line.MT101687_1"          0.00000,      0.0     -0.00171558
"Line.MT101688_1"          0.00000,      0.0     -0.00196066
"Line.MT101689_1"          0.00000,      0.0     -0.00272314
"Line.MT101690_1"          0.00000,      0.0     -8.16944E-005
"Line.MT101692_1"          0.00000,      0.0     -0.00198789
"Line.MT101693_1"          0.00000,      0.0     -0.0024236
"Line.MT101694_1"          0.00000,      0.0     -0.0024236
"Line.MT101695_1"          0.00000,      0.0     -0.00125265
"Line.MT101869_1"          0.00000,      0.0     -0.00404246
"Line.MT101870_1"          0.00000,      0.0     -0.00422862
"Line.MT101871_1"          0.00002,      0.0     -0.00468462
"Line.MT101873_1"          0.00000,      0.0     -0.0016223
"Line.MT101874_1"          0.00002,      0.0     -0.00500762
"Line.MT101875_1"          0.00003,      0.0     -0.00589598
"Line.MT101876_1"          0.00002,      0.0     -0.00395752
"Line.MT101877_1"          0.00000,      0.0     -0.00417177
"Line.MT101878_1"          0.00000,      0.0     -0.00627128
"Line.MT101879_1"          0.00000,      0.0     -8.17994E-005
"Line.MT102104_1"          0.00000,      0.0     -0.00185939
"Line.MT1022_1"            0.00000,      0.0     -0.00164494
"Line.MT102381_1"          0.00000,      0.0     -0.00130938
"Line.MT102382_1"          0.00000,      0.0     -0.00542459
"Line.MT102503_1"          0.00000,      0.0     -0.00242916
"Line.MT102504_1"          0.00000,      0.0     -0.00346633
"Line.MT102505_1"          0.00000,      0.0     -0.00341174
"Line.MT102506_1"          0.00000,      0.0     -0.00272939
"Line.MT102507_1"          0.00000,      0.0     -0.00166493
"Line.MT102553_1"          0.00000,      0.0     -0.00218845
"Line.MT102554_1"          0.00000,      0.0     -0.00242864
"Line.MT102555_1"          0.00000,      0.0     -0.00256207
"Line.MT102556_1"          0.00000,      0.0     -0.00277557
"Line.MT102557_1"          0.00000,      0.0     -0.00136109
"Line.MT102558_1"          0.00000,      0.0     -8.0065E-005
"Line.MT102560_1"          0.00000,      0.0     -0.00453697
"Line.MT102568_1"          0.00008,      0.0     -0.00479864
"Line.MT10261_1"           0.00003,      0.0     -0.00234385
"Line.MT102641_1"          0.00000,      0.0     -0.00691705
"Line.MT102643_1"          0.00037,      0.0     -0.00243582
"Line.MT102645_1"          0.00000,      0.0     -0.00342038
"Line.MT102646_1"          0.00000,      0.0     -0.00211738
"Line.MT102647_1"          0.00000,      0.0     -0.00298604
"Line.MT102686_2"          0.01025,     0.00     0.00393302
"Line.MT102932_1"          0.00000,      0.0     -0.00779973
"Line.MT102933_2"          0.00000,      0.0     -0.00185081
"Line.MT102936_1"          0.00000,      0.0     -0.0207128
"Line.MT102937_1"          0.00000,      0.0     -0.0173391
"Line.MT102988_1"          0.00000,      0.0     -0.00189965
"Line.MT102989_1"          0.00000,      0.0     -0.00409779
"Line.MT102990_1"          0.00000,      0.0     -0.00293085
"Line.MT102991_1"          0.00000,      0.0     -0.00168252
"Line.MT103158_1"          0.00000,      0.0     -0.000599712
"Line.MT103159_1"          0.00000,      0.0     -0.00294404
"Line.MT103198_1"          0.00012,      0.0     -0.00603621
"Line.MT103199_1"          0.00012,      0.0     -0.00650799
"Line.MT103200_1"          0.00000,      0.0     -0.0016392
"Line.MT103255_1"          0.00000,      0.0     -0.000237559
"Line.MT103339_1"          0.00000,      0.0     -0.0100142
"Line.MT103346_1"          0.02312,     0.01     0.00889968
"Line.MT103770_2"          0.01025,     0.00     0.0039351
"Line.MT103772_2"          0.01719,     0.00     0.00659489
"Line.MT103774_2"          0.01116,     0.00     0.00428384
"Line.MT103790_1"          0.00000,      0.0     -8.13364E-005
"Line.MT103965_1"          0.00000,      0.0     -0.00118663
"Line.MT103966_1"          0.00000,      0.0     -0.000237326
"Line.MT103974_1"          0.00000,      0.0     -0.00201618
"Line.MT103975_1"          0.00000,      0.0     -0.000159172
"Line.MT104087_1"          0.00000,      0.0     -0.00411458
"Line.MT104088_1"          0.00000,      0.0     -0.00473563
"Line.MT104093_1"          0.00000,      0.0     -0.00690945
"Line.MT104094_1"          0.00000,      0.0     -0.0113347
"Line.MT104095_1"          0.00000,      0.0     -0.00566727
"Line.MT104096_1"          0.00000,      0.0     -0.00310532
"Line.MT104121_1"          0.00000,      0.0     -0.0040998
"Line.MT104122_1"          0.00000,      0.0     -0.00508296
"Line.MT104123_1"          0.00000,      0.0     -0.00475579
"Line.MT104125_1"          0.00000,      0.0     -0.00951151
"Line.MT104127_1"          0.00000,      0.0     -0.00688759
"Line.MT104128_1"          0.00000,      0.0     -0.00524767
"Line.MT104130_1"          0.00000,      0.0     -0.00836344
"Line.MT104131_1"          0.00000,      0.0     -0.0070515
"Line.MT104137_1"          0.00845,     0.01     0.00401803
"Line.MT104213_1"          0.00000,      0.0     -0.000231918
"Line.MT104630_1"          0.00023,      0.0     -0.00126605
"Line.MT104676_1"          0.00000,      0.0     -0.00246751
"Line.MT104678_1"          0.00000,      0.0     -0.00206519
"Line.MT104681_1"          0.00000,      0.0     -0.0020652
"Line.MT104706_1"          0.00000,      0.0     -0.00136656
"Line.MT104707_1"          0.00000,      0.0     -0.0037782
"Line.MT104775_1"          0.00000,      0.0     -8.065E-005
"Line.MT104778_1"          0.00000,      0.0     -0.000106403
"Line.MT104887_1"          0.00000,      0.0     -0.000323209
"Line.MT104903_1"          0.00000,      0.0     -5.29481E-005
"Line.MT105040_1"          0.00007,      0.0     -0.00160212
"Line.MT105135_1"          0.02353,     0.01     0.0133435
"Line.MT105430_1"          0.00000,      0.0     -0.0030415
"Line.MT105517_1"          0.00000,      0.0     -0.00221098
"Line.MT105927_1"          0.00000,      0.0     -0.00421157
"Line.MT105928_1"          0.00000,      0.0     -0.00444554
"Line.MT106069_1"          0.00000,      0.0     -0.000552386
"Line.MT106320_1"          0.00021,      0.0     -0.00586565
"Line.MT106387_1"          0.00001,      0.0     -0.00015845
"Line.MT106432_1"          0.00000,      0.0     -0.00248574
"Line.MT106433_1"          0.00000,      0.0     -0.00709814
"Line.MT106435_1"          0.00000,      0.0     -0.00734668
"Line.MT106442_1"          0.00000,      0.0     -0.0025644
"Line.MT106443_1"          0.00000,      0.0     -0.00248508
"Line.MT106754_1"          0.00001,      0.0     -0.00110782
"Line.MT106783_1"          0.00000,      0.0     -0.000697172
"Line.MT106784_1"          0.00000,      0.0     -0.00252053
"Line.MT107575_1"          0.00000,      0.0     -0.00263491
"Line.MT107576_1"          0.00000,      0.0     -0.00249909
"Line.MT107577_1"          0.00000,      0.0     -8.14923E-005
"Line.MT107579_1"          0.00000,      0.0     -0.0176622
"Line.MT107580_1"          0.00000,      0.0     -0.00554884
"Line.MT107633_1"          0.00003,      0.0     -0.00500359
...
"Line.RAMAL_10003"         0.00009,      0.0     3.00081E-006
"Line.RAMAL_10005"         0.00001,      0.0     6.12942E-008
"Line.RAMAL_10006"         0.00002,      0.0     1.06969E-007
"Line.RAMAL_10008"         0.00003,      0.0     5.58195E-007
"Line.RAMAL_10010"         0.00000,      0.0     -7.24811E-007
"Line.RAMAL_10016"         0.00000,      0.0     -3.58908E-007
"Line.RAMAL_10021"         0.00006,      0.0     1.07867E-006
"Line.RAMAL_10022"         0.00000,      0.0     -7.17603E-007
"Line.RAMAL_10023"         0.00000,      0.0     -1.31712E-006
"Line.RAMAL_10027"         0.00000,      0.0     -5.92322E-007
"Line.RAMAL_10028"         0.00000,      0.0     -7.12417E-007
"Line.RAMAL_10030"         0.00000,      0.0     -3.58018E-007
"Line.RAMAL_10031"         0.00025,      0.0     8.23818E-006
"Line.RAMAL_10036"         0.00000,      0.0     -4.38017E-007
"Line.RAMAL_10038"         0.00000,      0.0     -5.03329E-007
"Line.RAMAL_10045"         0.00000,      0.0     -9.5367E-007
"Line.RAMAL_10046"         0.00000,      0.0     -1.90922E-006
"Line.RAMAL_10048"         0.00000,      0.0     -1.14221E-006
"Line.RAMAL_10049"         0.00002,      0.0     -1.26294E-006
"Line.RAMAL_10051"         0.00003,      0.0     -6.88921E-007
"Line.RAMAL_10052"         0.00000,      0.0     -1.16559E-006
"Line.RAMAL_10055"         0.00002,      0.0     -1.10405E-006
"Line.RAMAL_10056"         0.00000,      0.0     -9.53776E-007
"Line.RAMAL_10057"         0.00014,      0.0     2.61553E-006
"Line.RAMAL_10058"         0.00002,      0.0     -1.4903E-006
"Line.RAMAL_10060"         0.00007,      0.0     1.61299E-006
"Line.RAMAL_10061"         0.00002,      0.0     -1.03764E-006
"Line.RAMAL_10062"         0.00002,      0.0     -1.6935E-006
"Line.RAMAL_10064"         0.00000,      0.0     -9.50257E-007
"Line.RAMAL_10065"         0.00001,      0.0     -1.22556E-006
"Line.RAMAL_10068"         0.00002,      0.0     -3.7931E-007
"Line.RAMAL_10069"         0.00000,      0.0     -1.76953E-006
"Line.RAMAL_10070"         0.00004,      0.0     -4.64668E-007
"Line.RAMAL_10072"         0.00005,      0.0     7.8458E-007
"Line.RAMAL_10075"         0.00010,      0.0     1.2509E-006
"Line.RAMAL_10078"         0.00002,      0.0     -3.53042E-007
"Line.RAMAL_10081"         0.00000,      0.0     -9.70417E-007
"Line.RAMAL_10084"         0.00000,      0.0     -7.83167E-007
"Line.RAMAL_10085"         0.00005,      0.0     1.01022E-006
"Line.RAMAL_10087"         0.00001,      0.0     -1.25272E-007
"Line.RAMAL_10088"         0.00000,      0.0     -7.38576E-007
"Line.RAMAL_10089"         0.00009,      0.0     2.58477E-006
"Line.RAMAL_10090"         0.00003,      0.0     7.08612E-007
"Line.RAMAL_10091"         0.00006,      0.0     1.43197E-006
"Line.RAMAL_10093"         0.00007,      0.0     2.10627E-006
"Line.RAMAL_10095"         0.00000,      0.0     -2.75773E-007
"Line.RAMAL_10099"         0.00001,      0.0     -1.66876E-006
"Line.RAMAL_10101"         0.00001,      0.0     -7.05318E-007
"Line.RAMAL_10102"         0.00000,      0.0     -2.96798E-007
"Line.RAMAL_10103"         0.00001,      0.0     1.41975E-007
"Line.RAMAL_10104"         0.00003,      0.0     -1.2134E-006
"Line.RAMAL_10105"         0.00003,      0.0     6.96288E-007
"Line.RAMAL_10108"         0.00000,      0.0     -2.63697E-006
"Line.RAMAL_10109"         0.00000,      0.0     -1.91429E-006
"Line.RAMAL_10110"         0.00005,      0.0     6.74526E-007
"Line.RAMAL_10111"         0.00003,      0.0     1.29344E-007
"Line.RAMAL_10112"         0.00000,      0.0     -3.6069E-007
"Line.RAMAL_10114"         0.00000,      0.0     -3.65735E-007
"Line.RAMAL_10115"         0.00000,      0.0     -1.88381E-006
"Line.RAMAL_10116"         0.00000,      0.0     -3.17877E-006
"Line.RAMAL_10117"         0.00000,      0.0     -1.06253E-006
"Line.RAMAL_10118"         0.00000,      0.0     -2.13001E-006
"Line.RAMAL_10120"         0.00021,      0.0     5.30008E-006
"Line.RAMAL_10121"         0.00000,      0.0     -1.06702E-006
"Line.RAMAL_10122"         0.00000,      0.0     -1.05293E-006
"Line.RAMAL_10123"         0.00000,      0.0     -4.35362E-007
"Line.RAMAL_10124"         0.00000,      0.0     -3.78861E-007
"Line.RAMAL_10125"         0.00000,      0.0     -5.63313E-007
"Line.RAMAL_10126"         0.00029,      0.0     9.46055E-006
"Line.RAMAL_10127"         0.00003,      0.0     6.42908E-007
"Line.RAMAL_10128"         0.00001,      0.0     1.19785E-008
"Line.RAMAL_10129"         0.00000,      0.0     -1.06428E-006
"Line.RAMAL_10130"         0.00015,      0.0     4.82502E-006
"Line.RAMAL_10131"         0.00000,      0.0     -3.38078E-007
"Line.RAMAL_10133"         0.00006,      0.0     1.14164E-006
"Line.RAMAL_10134"         0.00000,      0.0     -6.12265E-007
"Line.RAMAL_10138"         0.00001,      0.0     8.52623E-008
"Line.RAMAL_10141"         0.00000,      0.0     -2.16227E-007
"Line.RAMAL_10142"         0.00000,      0.0     -2.80415E-007
"Line.RAMAL_10144"         0.00003,      0.0     8.21346E-007
"Line.RAMAL_10145"         0.00002,      0.0     2.14904E-007
"Line.RAMAL_10146"         0.00000,      0.0     -3.6448E-007
"Line.RAMAL_10147"         0.00000,      0.0     -3.54748E-007
...